/*--------------------------------*- C++ -*----------------------------------*\
| =========                 |                                                 |
| \\      /  F ield         | OpenFOAM: The Open Source CFD Toolbox           |
|  \\    /   O peration     | Version:  v2212                                 |
|   \\  /    A nd           | Website:  www.openfoam.com                      |
|    \\/     M anipulation  |                                                 |
\*---------------------------------------------------------------------------*/
FoamFile
{
    version     2.0;
    format      ascii;
    class       dictionary;
    object      controlDict;
}
// * * * * * * * * * * * * * * * * * * * * * * * * * * * * * * * * * * * * * //

application     myLaplacianFoam;

startFrom       latestTime;

startTime       0;

stopAt          writeNow;

endTime         5e-3;

deltaT          1e-3;

writeControl    timeStep;

writeInterval   11;

purgeWrite      0;

writeFormat     ascii;

writePrecision  17;

writeCompression off;

timeFormat      general;

timePrecision   6;

DebugSwitches
{
    // objectRegistry   1;
    // /usr/lib/openfoam/openfoam2212/src/OpenFOAM/db/objectRegistry/objectRegistry.C
}


// ************************************************************************* //
